   12

 C     0.0047477686     0.0000000021    -0.0309058962
 C     0.0113111555     0.0000000015     1.4104627552
 C     1.2242043143    -0.0000000051     2.1152261045
 C     2.4225730855     0.0000000053     1.4074754602
 C     2.4069525419    -0.0000000014     0.0060833702
 C     1.2090729483    -0.0000000021    -0.7079894536
 H    -0.8207075976     0.0000000077     0.4972814602
 H    -0.9232830385     0.0000000007     1.9740823718
 H     1.2311342697    -0.0000000094     3.2040241510
 H     3.3692157424     0.0000000031     1.9418414752
 H     3.3484818226     0.0000000034    -0.5372962089
 H     1.2191948030    -0.0000000095    -1.7951285041
