   14

 H     0.344660    -0.362285     0.482520
 C    -0.687960    -0.169774     0.254256
 C    -1.187365     1.123426     0.370261
 H    -0.551639     1.933786     0.675567
 C    -1.506324    -1.198757    -0.155797
 C    -2.842778    -0.948402    -0.455770
 C    -3.354736     0.335799    -0.336290
 C    -2.519071     1.378712     0.067289
 N    -3.480327     3.015487     1.680817
 O    -3.014702     2.635347     0.168653
 O    -3.248777     2.195179     2.454395
 H    -4.381909     0.547479    -0.568208
 H    -3.479572    -1.750587    -0.781152
 H    -1.113268    -2.194835    -0.247892
