   13

 C    -0.005210	   -0.000004	 0.040585
 C     0.005229	   -0.000005	 1.446255
 C     1.226872	    0.000003	 2.114394
 C     2.428430	    0.000000	 1.383482
 C     2.411709	   -0.000001    -0.017785
 C     1.189438	    0.000003    -0.693536
 H    -0.940754	   -0.000005     1.975119
 H     1.254220	    0.000000     3.198959
 H     3.377156	    0.000005     1.910658
 H     3.342858	    0.000002    -0.573657
 H     1.131052	   -0.000000    -1.776464
 N    -1.209411	   -0.000001    -0.749747
 O    -2.282227	    0.000003    -0.096130
