   11

 C     0.045438     0.000000     0.026234
 C    -0.020120    -0.000000     1.408061
 C     1.205530    -0.000001     2.102582
 C     2.415262     0.000000     1.394456
 C     2.423645    -0.000000    -0.007267
 C     1.209352    -0.000000    -0.721475
 H    -0.964494     0.000002     1.942259
 H     1.208146     0.000003     3.188688
 H     3.355206     0.000001     1.937185
 H     3.365534     0.000000    -0.548076
 H     1.199792     0.000000    -1.806427
