   14

 H     0.013727    -2.141391     0.100126
 C     0.007482    -1.223854    -0.451343
 C     0.008024    -1.206034    -1.835599
 C     0.000196     0.004099    -2.532708
 C    -0.007701     1.210974    -1.826994
 C    -0.007687     1.223899    -0.440058
 C     0.000667    -0.002054     0.239767
 H     0.014852    -2.136110    -2.373059
 H     0.000062     0.008733    -3.606385
 H    -0.014634     2.144161    -2.358989
 H    -0.015975     2.155396     0.091317
 N    -0.002270    -0.071949     1.602522
 O     0.030205     1.114247     2.315123
 O    -0.028524    -1.062104     2.335534
