   14

 H     0.403867    -0.218994     0.167253
 C    -0.649449    -0.005331     0.148090
 C    -1.076069     1.276969     0.257012
 H    -0.396734     2.098702     0.368490
 C    -1.572077    -1.083719    -0.011743
 C    -2.960856    -0.805893    -0.094051
 C    -3.443701     0.466179     0.014448
 C    -2.537715     1.626973     0.285038
 N    -2.783512     2.269042     1.697667
 O    -2.845433     2.735880    -0.429147
 O    -3.888011     2.041307     2.145268
 H    -4.487530     0.682782    -0.067148
 H    -3.647868    -1.614642    -0.264241
 H    -1.213757    -2.089665    -0.100385
